Version 4
SHEET 1 2236 1208
WIRE 96 -176 -80 -176
WIRE 208 -176 160 -176
WIRE 400 -176 208 -176
WIRE -640 -144 -720 -144
WIRE -608 -144 -640 -144
WIRE -368 -144 -608 -144
WIRE 208 -144 208 -176
WIRE -368 -128 -464 -128
WIRE -144 -128 -304 -128
WIRE -368 -112 -400 -112
WIRE -608 -96 -608 -144
WIRE -512 -96 -528 -96
WIRE -480 -96 -512 -96
WIRE -464 -96 -464 -128
WIRE -464 -96 -480 -96
WIRE -400 -96 -400 -112
WIRE -368 -96 -400 -96
WIRE -240 -96 -304 -96
WIRE -400 -80 -400 -96
WIRE -368 -80 -400 -80
WIRE -80 -80 -80 -176
WIRE 80 -80 -80 -80
WIRE 496 -80 336 -80
WIRE -400 -64 -400 -80
WIRE -352 -64 -352 -80
WIRE -352 -64 -400 -64
WIRE -352 -48 -352 -64
WIRE -608 -32 -608 -96
WIRE -512 -32 -512 -96
WIRE -512 -32 -544 -32
WIRE -480 0 -480 -32
WIRE -144 0 -144 -128
WIRE 80 0 -144 0
WIRE 400 0 400 -112
WIRE 400 0 336 0
WIRE 496 0 400 0
WIRE -640 64 -640 -144
WIRE -576 64 -640 64
WIRE -384 64 -512 64
WIRE -144 64 -384 64
WIRE -576 80 -592 80
WIRE -144 80 -240 80
WIRE 80 80 -80 80
WIRE 496 80 336 80
WIRE -144 96 -176 96
WIRE -384 112 -384 64
WIRE -288 112 -304 112
WIRE -256 112 -288 112
WIRE -240 112 -240 80
WIRE -240 112 -256 112
WIRE -176 112 -176 96
WIRE -144 112 -176 112
WIRE -16 112 -80 112
WIRE -592 128 -592 80
WIRE -176 128 -176 112
WIRE -144 128 -176 128
WIRE -176 144 -176 128
WIRE -128 144 -128 128
WIRE -128 144 -176 144
WIRE -128 160 -128 144
WIRE -384 176 -384 112
WIRE -288 176 -288 112
WIRE -288 176 -320 176
WIRE 208 192 208 144
WIRE -256 208 -256 176
WIRE 800 416 640 416
WIRE 640 496 640 416
WIRE -704 592 -704 560
WIRE -544 592 -544 560
WIRE 640 624 640 576
FLAG -704 496 VDD5
IOPIN -704 496 Out
FLAG -704 592 0
FLAG -544 496 VDD9
IOPIN -544 496 Out
FLAG -544 592 0
FLAG 496 0 Vswitch
IOPIN 496 0 Out
FLAG -80 -176 VDD9
IOPIN -80 -176 Out
FLAG 496 -80 VGH
IOPIN 496 -80 Out
FLAG 496 80 VGL
IOPIN 496 80 Out
FLAG 208 192 0
FLAG -352 -48 0
FLAG 640 416 Vpwm
IOPIN 640 416 Out
FLAG -480 0 0
FLAG -128 160 0
FLAG -256 208 0
FLAG -592 128 0
FLAG 640 624 0
SYMBOL cell -704 496 R0
WINDOW 123 0 0 Left 2
WINDOW 39 0 0 Left 2
SYMATTR InstName V1
SYMATTR Value 5
SYMBOL cell -544 496 R0
WINDOW 123 0 0 Left 2
WINDOW 39 0 0 Left 2
SYMATTR InstName V5
SYMATTR Value 9
SYMBOL PowerProducts\\LTC4444 208 0 R0
SYMATTR InstName U1
SYMBOL diode 96 -160 R270
WINDOW 0 32 32 VTop 2
WINDOW 3 0 32 VBottom 2
SYMATTR InstName D1
SYMBOL cap 384 -176 R0
SYMATTR InstName C1
SYMATTR Value 0.1µ
SYMBOL Digital\\and -336 -176 R0
WINDOW 3 16 52 Left 2
SYMATTR Value Vhigh=5
SYMATTR InstName A1
SYMBOL res -512 -112 R90
WINDOW 0 0 56 VBottom 2
WINDOW 3 33 4 VTop 2
SYMATTR InstName R2
SYMATTR Value 220
SYMBOL cap -496 -96 R0
SYMATTR InstName C3
SYMATTR Value 1n
SYMBOL Digital\\and -112 32 R0
WINDOW 3 -101 9 Left 2
SYMATTR Value Vhigh=5
SYMATTR InstName A2
SYMBOL res -288 96 R90
WINDOW 0 0 56 VBottom 2
WINDOW 3 47 -8 VTop 2
SYMATTR InstName R3
SYMATTR Value 220
SYMBOL cap -272 112 R0
SYMATTR InstName C4
SYMATTR Value 1n
SYMBOL Digital\\inv -576 0 R0
WINDOW 3 8 60 Left 2
SYMATTR Value Vhigh=5
SYMATTR InstName A3
SYMBOL voltage 640 480 R0
WINDOW 3 -328 52 Left 2
WINDOW 123 0 0 Left 0
WINDOW 39 0 0 Left 0
SYMATTR Value PULSE(0 5 0 1n 1n 5u 10u)
SYMATTR InstName V4
SYMBOL nmos 800 336 R0
SYMATTR InstName M1
SYMATTR Value BSC110N06NS3
SYMBOL diode -544 -48 R90
WINDOW 0 0 32 VBottom 2
WINDOW 3 32 32 VTop 2
SYMATTR InstName D2
SYMBOL diode -320 160 R90
WINDOW 0 0 32 VBottom 2
WINDOW 3 32 32 VTop 2
SYMATTR InstName D3
TEXT 800 -72 Left 2 !.model switch sw(Ron=0.01 Roff=100e6 Vt=0.1)
TEXT 792 -232 Left 2 !.MODEL mur1520 d\n+IS=3.22361e-06 RS=0.0101677 N=2 EG=1.21579\n+XTI=3.00528 BV=200 IBV=0.00001 CJO=5.43127e-10\n+VJ=0.4 M=0.373455 FC=0.5 TT=3.24606e-08\n+KF=0 AF=1
TEXT -784 248 Left 2 ;This is a representation of the gate drive circuit used on the converter board.\nNote the actual board uses the Maxim gate drive IC (MAX15013CASA).\nFor convenience in the simulation, a similiar gate drive IC which exists in the library is used.
TEXT -872 688 Left 2 ;5 V and 9 V Power supplies needed by the components.\nNote on the actual board these are supplied from the input supply by seperate, on-board DC-DC converters..
TEXT 456 672 Left 2 ;The MOSFET used on the board is actually a BSC110N15NS5 but is\nnot in the library. This is a very similiar MOSFET.
TEXT 784 -368 Left 2 !.model IRF9Z34N VDMOS(pchan Rg=3 Rd=42m Rs=31m Vto=-4 Kp=1 \n+Cgdmax=0.5n Cgdmin=.1n Cgs=.48n Cjo=.76n Is=76p Rb=52m \n+mfg=International_Rectifier Vds=-55 Ron=100m Qg=35n)
