Version 4
SHEET 1 880 680
WIRE 80 80 80 48
FLAG 80 80 0
SYMBOL diode 64 -16 R0
SYMATTR InstName D1
